* PSpice Model Editor - Version 9.2

*$
.model Qbreakp PNP ( Bf=50 Br=4.0 VAf=50V Is=10fA Tf=30ns

+ Rb=300 Rc=100 Re=10 Cje=0.3pF Vje=0.55V Mje=0.5 Cjc=1.0pF

+ Vjc=0.55V Mjc=0.5 Cjs=3.0pF Vjs=0.52V Mjs=0.5)
*$
.model Qbreakn NPN ( Bf=200 Br=2.0 VAf=125V Is=10fA Tf=0.35ns

+ Rb=200 Rc=200 Re=2 Cje=1.0pF Vje=0.70V Mje=0.33 Cjc=0.3pF

+ Vjc=0.55V Mjc=0.5 Cjs=3.0pF Vjs=0.52V Mjs=0.5)
*$
.model npn NPN ( Bf=200 Br=2.0 VAf=125V Is=10fA Tf=0.35ns

+ Rb=200 Rc=200 Re=2 Cje=1.0pF Vje=0.70V Mje=0.33 Cjc=0.3pF

+ Vjc=0.55V Mjc=0.5 Cjs=3.0pF Vjs=0.52V Mjs=0.5)
*$
.model pnp PNP ( Bf=50 Br=4.0 VAf=50V Is=10fA Tf=30ns

+ Rb=300 Rc=100 Re=10 Cje=0.3pF Vje=0.55V Mje=0.5 Cjc=1.0pF

+ Vjc=0.55V Mjc=0.5 Cjs=3.0pF Vjs=0.52V Mjs=0.5)
*$
